REMARK  4 active torsions:
REMARK  status: ('A' for Active; 'I' for Inactive)
REMARK    1  A    between atoms: O_2  and  C_9 
REMARK    2  A    between atoms: O_2  and  C_14 
REMARK    3  A    between atoms: C_6  and  C_7 
REMARK    4  A    between atoms: C_17  and  C_20 
ROOT
HETATM    1  N   UNK N   1      -7.023   1.163  -1.272  0.00  0.00    -0.192 NA
HETATM    2  C   UNK N   1      -4.293  -0.198   0.303  0.00  0.00     0.022 C 
HETATM    3  C   UNK N   1      -5.010  -0.387  -0.813  0.00  0.00     0.094 C 
HETATM    4  C   UNK N   1      -6.161   0.423  -1.058  0.00  0.00     0.087 C 
ENDROOT
BRANCH   2   5
HETATM    5  C   UNK N   1      -2.905  -0.611   0.574  0.00  0.00    -0.033 A 
HETATM    6  C   UNK N   1      -1.846  -0.274  -0.293  0.00  0.00     0.048 A 
HETATM    7  C   UNK N   1      -0.512  -0.311   0.155  0.00  0.00     0.076 A 
HETATM    8  C   UNK N   1      -0.245  -0.676   1.477  0.00  0.00     0.037 A 
HETATM    9  C   UNK N   1      -1.284  -1.078   2.316  0.00  0.00     0.004 A 
HETATM   10  C   UNK N   1      -2.604  -1.058   1.865  0.00  0.00     0.011 A 
BRANCH   7  11
HETATM   11  O   UNK N   1       0.464   0.101  -0.743  0.00  0.00    -0.309 OA
BRANCH  11  12
HETATM   12  C   UNK N   1       1.810  -0.118  -0.429  0.00  0.00     0.106 C 
HETATM   13  C   UNK N   1       2.546   1.048   0.101  0.00  0.00    -0.001 C 
HETATM   14  C   UNK N   1       3.810   0.872   0.552  0.00  0.00     0.017 C 
HETATM   15  N   UNK N   1       4.405  -0.361   0.425  0.00  0.00    -0.326 N 
HETATM   16  C   UNK N   1       4.692   1.942   1.142  0.00  0.00     0.069 C 
HETATM   17  C   UNK N   1       3.850  -1.448  -0.200  0.00  0.00     0.265 C 
HETATM   18  H   UNK N   1       5.362  -0.498   0.732  0.00  0.00     0.169 HD
HETATM   19  O   UNK N   1       4.509  -2.473  -0.344  0.00  0.00    -0.267 OA
HETATM   20  C   UNK N   1       2.429  -1.298  -0.653  0.00  0.00     0.108 C 
HETATM   21  I   UNK N   1       1.538  -2.928  -1.549  0.00  0.00    -0.036 I 
BRANCH  13  22
HETATM   22  C   UNK N   1       1.847   2.392   0.125  0.00  0.00     0.039 C 
HETATM   23  C   UNK N   1       2.073   3.175  -1.163  0.00  0.00     0.010 C 
ENDBRANCH  13  22
ENDBRANCH  11  12
ENDBRANCH   7  11
ENDBRANCH   2   5
TORSDOF 4
