REMARK  6 active torsions:
REMARK  status: ('A' for Active; 'I' for Inactive)
REMARK    1  A    between atoms: O_2  and  C_21 
REMARK    2  A    between atoms: O_4  and  C_29 
REMARK       I    between atoms: N_6  and  C_22 
REMARK    3  A    between atoms: N_6  and  C_23 
REMARK    4  A    between atoms: C_19  and  C_21 
REMARK    5  A    between atoms: C_21  and  C_22 
REMARK    6  A    between atoms: C_28  and  C_29 
ROOT
HETATM    1  C   UNK N   1      -0.384  -2.474   0.896  0.00  0.00     0.243 C 
ENDROOT
BRANCH   1   2
HETATM    2  O   UNK N   1      -0.892  -3.748   0.541  0.00  0.00    -0.381 OA
HETATM    3  H   UNK N   1      -0.115  -4.292   0.316  0.00  0.00     0.211 HD
ENDBRANCH   1   2
BRANCH   1   4
HETATM    4  C   UNK N   1      -1.514  -1.472   0.812  0.00  0.00    -0.020 A 
HETATM    5  C   UNK N   1      -1.850  -0.827  -0.393  0.00  0.00     0.018 A 
HETATM    6  C   UNK N   1      -2.904   0.108  -0.479  0.00  0.00    -0.043 A 
HETATM    7  C   UNK N   1      -3.258   0.733  -1.844  0.00  0.00    -0.020 C 
HETATM    8  C   UNK N   1      -3.640   0.386   0.702  0.00  0.00    -0.043 A 
HETATM    9  C   UNK N   1      -4.254   1.909  -1.705  0.00  0.00     0.015 C 
HETATM   10  C   UNK N   1      -3.890  -0.340  -2.764  0.00  0.00     0.020 C 
HETATM   11  C   UNK N   1      -2.014   1.291  -2.576  0.00  0.00     0.020 C 
HETATM   12  C   UNK N   1      -5.338   1.625  -0.675  0.00  0.00     0.015 C 
HETATM   13  C   UNK N   1      -4.747   1.444   0.736  0.00  0.00    -0.020 C 
HETATM   14  C   UNK N   1      -4.113   2.753   1.260  0.00  0.00     0.020 C 
HETATM   15  C   UNK N   1      -5.916   1.077   1.682  0.00  0.00     0.020 C 
HETATM   16  C   UNK N   1      -3.309  -0.286   1.898  0.00  0.00     0.009 A 
HETATM   17  C   UNK N   1      -2.270  -1.206   1.952  0.00  0.00     0.011 A 
ENDBRANCH   1   4
BRANCH   1  18
HETATM   18  C   UNK N   1       0.867  -2.039   0.095  0.00  0.00     0.255 C 
HETATM   19  O   UNK N   1       1.327  -2.730  -0.811  0.00  0.00    -0.270 OA
HETATM   20  N   UNK N   1       1.440  -0.896   0.622  0.00  0.00    -0.322 N 
HETATM   21  H   UNK N   1       0.992  -0.489   1.440  0.00  0.00     0.169 HD
BRANCH  20  22
HETATM   22  C   UNK N   1       2.698  -0.362   0.313  0.00  0.00     0.073 A 
HETATM   23  C   UNK N   1       3.270   0.465   1.288  0.00  0.00     0.144 A 
HETATM   24  F   UNK N   1       2.603   0.684   2.434  0.00  0.00    -0.204 F 
HETATM   25  C   UNK N   1       4.517   1.040   1.115  0.00  0.00     0.063 A 
HETATM   26  C   UNK N   1       5.191   0.820  -0.087  0.00  0.00     0.040 A 
HETATM   27  C   UNK N   1       4.646  -0.020  -1.067  0.00  0.00     0.021 A 
HETATM   28  C   UNK N   1       3.394  -0.612  -0.869  0.00  0.00     0.034 A 
BRANCH  26  29
HETATM   29  C   UNK N   1       6.443   1.533  -0.391  0.00  0.00     0.176 C 
HETATM   30  O   UNK N   1       7.325   1.160  -1.144  0.00  0.00    -0.646 OA
BRANCH  29  31
HETATM   31  O   UNK N   1       6.429   2.763   0.148  0.00  0.00    -0.773 OA
HETATM   32  H   UNK N   1       7.194   3.218  -0.262  0.00  0.00     0.167 HD
ENDBRANCH  29  31
ENDBRANCH  26  29
ENDBRANCH  20  22
ENDBRANCH   1  18
TORSDOF 6
