REMARK  3 active torsions:
REMARK  status: ('A' for Active; 'I' for Inactive)
REMARK    1  A    between atoms: O_2  and  C_18 
REMARK    2  A    between atoms: C_6  and  C_7 
REMARK    3  A    between atoms: C_6  and  C_8 
ROOT
HETATM    1  O   UNK N   1      -1.269   2.531  -0.360  0.00  0.00    -0.268 OA
HETATM    2  N   UNK N   1       0.899   2.112  -1.048  0.00  0.00    -0.322 N 
ATOM      3  HN  UNK N   1       1.114   2.943  -1.600  1.00  0.00     0.169 HD
HETATM    4  C   UNK N   1      -0.133   0.534   0.339  0.00  0.00     0.032 A 
HETATM    5  C   UNK N   1       1.061   0.046  -0.008  0.00  0.00     0.006 A 
HETATM    6  C   UNK N   1       1.666   1.104  -0.828  0.00  0.00     0.046 A 
HETATM    7  C   UNK N   1      -0.276   1.834  -0.380  0.00  0.00     0.253 A 
HETATM    8  C   UNK N   1       1.766  -1.177   0.244  0.00  0.00     0.051 A 
HETATM    9  C   UNK N   1       3.066   0.917  -1.257  0.00  0.00     0.033 A 
HETATM   10  C   UNK N   1       3.041  -1.281  -0.173  0.00  0.00     0.066 A 
HETATM   11  C   UNK N   1       3.705  -0.205  -0.883  0.00  0.00     0.039 A 
ENDROOT
BRANCH   4  12
HETATM   12  C   UNK N   1      -1.216  -0.079   1.181  0.00  0.00     0.071 C 
HETATM   13  C   UNK N   1      -1.618   0.687   2.457  0.00  0.00     0.022 C 
BRANCH  12  14
HETATM   14  C   UNK N   1      -2.427  -0.488   0.388  0.00  0.00     0.017 A 
HETATM   15  N   UNK N   1      -2.529  -1.756  -0.130  0.00  0.00    -0.369 N 
HETATM   16  C   UNK N   1      -3.683  -1.869  -0.853  0.00  0.00     0.088 A 
HETATM   17  H   UNK N   1      -1.844  -2.490  -0.009  0.00  0.00     0.165 HD
HETATM   18  C   UNK N   1      -4.354  -0.672  -0.772  0.00  0.00     0.019 A 
HETATM   19  C   UNK N   1      -3.568   0.200   0.019  0.00  0.00     0.027 A 
ENDBRANCH  12  14
ENDBRANCH   4  12
BRANCH  10  20
HETATM   20  O   UNK N   1       3.818  -2.397  -0.004  0.00  0.00    -0.361 OA
HETATM   21  H   UNK N   1       3.288  -3.099   0.405  0.00  0.00     0.217 HD
ENDBRANCH  10  20
TORSDOF 3
