REMARK  3 active torsions:
REMARK  status: ('A' for Active; 'I' for Inactive)
REMARK    1  A    between atoms: O_2  and  C_11 
REMARK    2  A    between atoms: O_3  and  C_17 
REMARK    3  A    between atoms: C_5  and  C_8 
ROOT
HETATM    1  O   UNK N   1       0.352  -0.875  -0.111  0.00  0.00    -0.309 OA
HETATM    2  C   UNK N   1       1.836   0.821  -0.137  0.00  0.00     0.003 A 
HETATM    3  C   UNK N   1      -0.351   0.300  -0.196  0.00  0.00     0.087 A 
HETATM    4  C   UNK N   1       1.671  -0.554  -0.029  0.00  0.00     0.086 A 
HETATM    5  C   UNK N   1       0.528   1.361  -0.235  0.00  0.00     0.052 A 
HETATM    6  C   UNK N   1       3.133   1.349  -0.079  0.00  0.00     0.051 A 
HETATM    7  C   UNK N   1       2.717  -1.452   0.181  0.00  0.00     0.041 A 
HETATM    8  C   UNK N   1       4.200   0.468   0.105  0.00  0.00     0.066 A 
HETATM    9  C   UNK N   1       4.004  -0.905   0.264  0.00  0.00     0.039 A 
ENDROOT
BRANCH   3  10
HETATM   10  C   UNK N   1      -1.802   0.177  -0.086  0.00  0.00    -0.002 A 
HETATM   11  C   UNK N   1      -2.586   1.290   0.261  0.00  0.00     0.017 A 
HETATM   12  C   UNK N   1      -3.938   1.134   0.577  0.00  0.00     0.037 A 
HETATM   13  C   UNK N   1      -4.511  -0.129   0.534  0.00  0.00     0.065 A 
HETATM   14  C   UNK N   1      -3.769  -1.237   0.141  0.00  0.00     0.037 A 
HETATM   15  C   UNK N   1      -2.425  -1.073  -0.197  0.00  0.00     0.017 A 
BRANCH  13  16
HETATM   16  O   UNK N   1      -5.822  -0.249   0.883  0.00  0.00    -0.361 OA
HETATM   17  H   UNK N   1      -6.141  -1.107   0.558  0.00  0.00     0.217 HD
ENDBRANCH  13  16
ENDBRANCH   3  10
BRANCH   8  18
HETATM   18  O   UNK N   1       5.448   1.022   0.136  0.00  0.00    -0.361 OA
HETATM   19  H   UNK N   1       6.107   0.322  -0.002  0.00  0.00     0.217 HD
ENDBRANCH   8  18
TORSDOF 3
