REMARK  7 active torsions:
REMARK  status: ('A' for Active; 'I' for Inactive)
REMARK    1  A    between atoms: O_1  and  C_10 
REMARK    2  A    between atoms: N_4  and  C_9 
REMARK    3  A    between atoms: N_4  and  C_11 
REMARK    4  A    between atoms: N_7  and  C_14 
REMARK    5  A    between atoms: N_8  and  C_16 
REMARK    6  A    between atoms: C_9  and  C_10 
REMARK    7  A    between atoms: C_10  and  C_14 
ROOT
HETATM    1  N   UNK N   1       0.385  -2.015  -0.421  0.00  0.00    -0.363 N 
ATOM      2  HN  UNK N   1      -0.598  -2.288  -0.395  1.00  0.00     0.165 HD
HETATM    3  C   UNK N   1      -0.260   0.287  -0.127  0.00  0.00     0.056 C 
HETATM    4  C   UNK N   1       0.740  -0.714  -0.272  0.00  0.00     0.071 C 
HETATM    5  C   UNK N   1       2.101  -0.337  -0.234  0.00  0.00     0.026 C 
HETATM    6  C   UNK N   1       0.110   1.632   0.035  0.00  0.00     0.034 C 
HETATM    7  C   UNK N   1       2.415   0.995   0.134  0.00  0.00     0.115 C 
HETATM    8  C   UNK N   1       1.438   1.987   0.205  0.00  0.00     0.039 C 
HETATM    9  C   UNK N   1       3.061  -1.325  -0.562  0.00  0.00     0.017 C 
HETATM   10  C   UNK N   1       2.688  -2.647  -0.732  0.00  0.00     0.018 C 
HETATM   11  C   UNK N   1       1.351  -2.946  -0.603  0.00  0.00     0.088 C 
ENDROOT
BRANCH   3  12
HETATM   12  N   UNK N   1      -1.612  -0.073  -0.232  0.00  0.00    -0.386 N 
HETATM   13  H   UNK N   1      -1.766  -1.078  -0.138  0.00  0.00     0.159 HD
BRANCH  12  14
HETATM   14  C   UNK N   1      -2.704   0.869   0.008  0.00  0.00     0.153 C 
BRANCH  14  15
HETATM   15  C   UNK N   1      -4.066   0.152   0.002  0.00  0.00     0.163 C 
BRANCH  15  16
HETATM   16  O   UNK N   1      -4.209  -0.581   1.229  0.00  0.00    -0.392 OA
HETATM   17  H   UNK N   1      -3.362  -1.026   1.400  0.00  0.00     0.210 HD
ENDBRANCH  15  16
BRANCH  15  18
HETATM   18  C   UNK N   1      -5.214   1.179  -0.121  0.00  0.00     0.299 C 
BRANCH  18  19
HETATM   19  N   UNK N   1      -6.520   0.546  -0.331  0.00  0.00     0.080 N 
HETATM   20  H   UNK N   1      -6.551   0.106  -1.249  0.00  0.00     0.312 HD
HETATM   21  H   UNK N   1      -7.256   1.248  -0.309  0.00  0.00     0.312 HD
ENDBRANCH  18  19
ENDBRANCH  15  18
ENDBRANCH  14  15
ENDBRANCH  12  14
ENDBRANCH   3  12
BRANCH   7  22
HETATM   22  N   UNK N   1       3.733   1.325   0.689  0.00  0.00    -0.115 N 
HETATM   23  O   UNK N   1       4.109   2.505   0.604  0.00  0.00    -0.532 OA
HETATM   24  O   UNK N   1       4.356   0.433   1.276  0.00  0.00    -0.532 OA
ENDBRANCH   7  22
TORSDOF 7
