REMARK  4 active torsions:
REMARK  status: ('A' for Active; 'I' for Inactive)
REMARK    1  A    between atoms: O_1  and  C_16 
REMARK    2  A    between atoms: N_3  and  C_4 
REMARK    3  A    between atoms: N_3  and  C_10 
REMARK    4  A    between atoms: C_11  and  C_16 
ROOT
HETATM    1  C   UNK N   1       0.692   0.430   0.118  0.00  0.00     0.045 A 
HETATM    2  C   UNK N   1       1.762  -0.464  -0.135  0.00  0.00     0.064 A 
HETATM    3  C   UNK N   1       0.979   1.803   0.098  0.00  0.00     0.030 A 
HETATM    4  C   UNK N   1       3.061   0.021  -0.358  0.00  0.00     0.020 A 
HETATM    5  C   UNK N   1       2.279   2.276  -0.097  0.00  0.00     0.002 A 
HETATM    6  C   UNK N   1       3.320   1.386  -0.323  0.00  0.00     0.001 A 
ENDROOT
BRANCH   1   7
HETATM    7  N   UNK N   1      -0.605  -0.047   0.269  0.00  0.00    -0.384 N 
HETATM    8  H   UNK N   1      -0.617  -1.016   0.607  0.00  0.00     0.160 HD
BRANCH   7   9
HETATM    9  C   UNK N   1      -1.771   0.746   0.650  0.00  0.00     0.081 C 
HETATM   10  C   UNK N   1      -2.408   1.379  -0.604  0.00  0.00     0.025 C 
HETATM   11  C   UNK N   1      -3.149   0.373  -1.491  0.00  0.00     0.002 C 
HETATM   12  C   UNK N   1      -4.111  -0.493  -0.684  0.00  0.00     0.000 C 
HETATM   13  C   UNK N   1      -3.345  -1.222   0.411  0.00  0.00     0.002 C 
HETATM   14  C   UNK N   1      -2.759  -0.188   1.373  0.00  0.00     0.025 C 
ENDBRANCH   7   9
ENDBRANCH   1   7
BRANCH   2  15
HETATM   15  C   UNK N   1       1.552  -1.940  -0.059  0.00  0.00     0.178 C 
HETATM   16  O   UNK N   1       0.584  -2.512   0.402  0.00  0.00    -0.646 OA
BRANCH  15  17
HETATM   17  O   UNK N   1       2.632  -2.636  -0.473  0.00  0.00    -0.773 OA
HETATM   18  H   UNK N   1       2.439  -3.557  -0.201  0.00  0.00     0.167 HD
ENDBRANCH  15  17
ENDBRANCH   2  15
TORSDOF 4
