REMARK  2 active torsions:
REMARK  status: ('A' for Active; 'I' for Inactive)
REMARK    1  A    between atoms: N_7  and  C_17 
REMARK       I    between atoms: N_8  and  C_21 
REMARK    2  A    between atoms: C_15  and  C_21 
ROOT
HETATM    1  F   UNK N   1       5.551  -0.825  -0.110  0.00  0.00    -0.206 F 
HETATM    2  O   UNK N   1       0.719   1.794   0.120  0.00  0.00    -0.292 OA
HETATM    3  O   UNK N   1       0.709  -2.270   0.076  0.00  0.00    -0.286 OA
HETATM    4  N   UNK N   1      -1.579   1.883  -0.132  0.00  0.00    -0.326 N 
ATOM      5  HN  UNK N   1      -1.507   2.900  -0.175  1.00  0.00     0.169 HD
HETATM    6  C   UNK N   1      -0.519  -0.281  -0.102  0.00  0.00     0.067 A 
HETATM    7  C   UNK N   1       1.972  -0.295  -0.049  0.00  0.00     0.052 A 
HETATM    8  C   UNK N   1       0.720  -1.052  -0.034  0.00  0.00     0.199 C 
HETATM    9  C   UNK N   1      -0.465   1.104  -0.064  0.00  0.00     0.163 A 
HETATM   10  C   UNK N   1       1.899   1.086   0.125  0.00  0.00     0.092 A 
HETATM   11  C   UNK N   1      -1.753  -0.916  -0.140  0.00  0.00     0.040 A 
HETATM   12  C   UNK N   1      -2.895  -0.123  -0.094  0.00  0.00     0.070 A 
HETATM   13  C   UNK N   1       3.200  -0.951  -0.161  0.00  0.00     0.060 A 
HETATM   14  C   UNK N   1      -2.786   1.268  -0.139  0.00  0.00     0.095 A 
HETATM   15  C   UNK N   1       3.081   1.807   0.316  0.00  0.00     0.041 A 
HETATM   16  C   UNK N   1       4.364  -0.214  -0.011  0.00  0.00     0.117 A 
HETATM   17  C   UNK N   1       4.316   1.151   0.264  0.00  0.00     0.045 A 
ENDROOT
BRANCH  12  18
HETATM   18  C   UNK N   1      -4.189  -0.782   0.095  0.00  0.00     0.252 C 
HETATM   19  O   UNK N   1      -4.568  -1.118   1.210  0.00  0.00    -0.268 OA
HETATM   20  N   UNK N   1      -4.911  -1.033  -1.032  0.00  0.00    -0.366 N 
HETATM   21  H   UNK N   1      -4.552  -0.892  -1.966  0.00  0.00     0.159 HD
HETATM   22  H   UNK N   1      -5.762  -1.570  -0.915  0.00  0.00     0.159 HD
ENDBRANCH  12  18
BRANCH  14  23
HETATM   23  N   UNK N   1      -3.902   2.095  -0.082  0.00  0.00    -0.288 NA
HETATM   24  H   UNK N   1      -3.660   3.060  -0.281  0.00  0.00     0.125 HD
HETATM   25  H   UNK N   1      -4.725   1.754  -0.564  0.00  0.00     0.125 HD
ENDBRANCH  14  23
TORSDOF 2
