REMARK  7 active torsions:
REMARK  status: ('A' for Active; 'I' for Inactive)
REMARK    1  A    between atoms: O_2  and  C_29 
REMARK    2  A    between atoms: O_2  and  C_30 
REMARK    3  A    between atoms: N_3  and  C_13 
REMARK       I    between atoms: N_3  and  C_21 
REMARK    4  A    between atoms: N_10  and  C_23 
REMARK       I    between atoms: N_11  and  C_26 
REMARK    5  A    between atoms: C_12  and  C_13 
REMARK    6  A    between atoms: C_12  and  C_14 
REMARK    7  A    between atoms: C_21  and  C_22 
ROOT
HETATM    1  C   UNK N   1      -3.378   2.342  -1.268  0.00  0.00     0.011 C 
HETATM    2  C   UNK N   1      -4.740   3.063  -1.092  0.00  0.00     0.023 C 
HETATM    3  C   UNK N   1      -3.158   2.147  -2.790  0.00  0.00     0.023 C 
ENDROOT
BRANCH   1   4
HETATM    4  C   UNK N   1      -2.301   3.314  -0.699  0.00  0.00     0.138 C 
BRANCH   4   5
HETATM    5  N   UNK N   1      -0.966   2.763  -0.598  0.00  0.00    -0.356 N 
HETATM    6  C   UNK N   1      -0.314   2.602   0.606  0.00  0.00     0.251 C 
HETATM    7  O   UNK N   1      -0.814   2.843   1.702  0.00  0.00    -0.268 OA
HETATM    8  H   UNK N   1      -0.446   2.646  -1.457  0.00  0.00     0.162 HD
BRANCH   6   9
HETATM    9  C   UNK N   1       1.102   2.162   0.502  0.00  0.00     0.032 A 
HETATM   10  C   UNK N   1       1.518   1.335  -0.549  0.00  0.00     0.020 A 
HETATM   11  C   UNK N   1       2.860   0.985  -0.669  0.00  0.00     0.038 A 
HETATM   12  C   UNK N   1       3.778   1.396   0.304  0.00  0.00     0.076 A 
HETATM   13  C   UNK N   1       3.374   2.239   1.341  0.00  0.00     0.038 A 
HETATM   14  C   UNK N   1       2.032   2.613   1.448  0.00  0.00     0.020 A 
BRANCH  12  15
HETATM   15  O   UNK N   1       5.097   0.993   0.290  0.00  0.00    -0.311 OA
BRANCH  15  16
HETATM   16  C   UNK N   1       5.335  -0.338   0.013  0.00  0.00     0.076 A 
HETATM   17  C   UNK N   1       4.557  -1.376   0.539  0.00  0.00     0.037 A 
HETATM   18  C   UNK N   1       4.811  -2.696   0.166  0.00  0.00     0.003 A 
HETATM   19  C   UNK N   1       5.843  -2.979  -0.727  0.00  0.00     0.000 A 
HETATM   20  C   UNK N   1       6.651  -1.950  -1.211  0.00  0.00     0.003 A 
HETATM   21  C   UNK N   1       6.414  -0.630  -0.820  0.00  0.00     0.037 A 
ENDBRANCH  15  16
ENDBRANCH  12  15
ENDBRANCH   6   9
ENDBRANCH   4   5
ENDBRANCH   1   4
BRANCH   1  22
HETATM   22  C   UNK N   1      -3.357   1.000  -0.508  0.00  0.00     0.020 A 
HETATM   23  N   UNK N   1      -2.901  -0.117  -1.152  0.00  0.00    -0.344 N 
HETATM   24  C   UNK N   1      -2.825  -1.304  -0.517  0.00  0.00     0.121 A 
ATOM     25  HN  UNK N   1      -2.614  -0.051  -2.128  1.00  0.00     0.167 HD
HETATM   26  N   UNK N   1      -2.412  -2.375  -1.194  0.00  0.00    -0.318 N 
HETATM   27  C   UNK N   1      -3.183  -1.402   0.822  0.00  0.00     0.046 A 
HETATM   28  C   UNK N   1      -2.319  -3.537  -0.544  0.00  0.00     0.157 A 
ATOM     29  HN  UNK N   1      -2.172  -2.308  -2.183  1.00  0.00     0.170 HD
HETATM   30  N   UNK N   1      -2.623  -3.728   0.738  0.00  0.00    -0.323 N 
HETATM   31  N   UNK N   1      -1.918  -4.655  -1.252  0.00  0.00    -0.274 NA
HETATM   32  C   UNK N   1      -3.046  -2.658   1.411  0.00  0.00     0.094 A 
ATOM     33  HN  UNK N   1      -2.536  -4.643   1.181  1.00  0.00     0.169 HD
HETATM   34  H   UNK N   1      -2.211  -4.582  -2.216  0.00  0.00     0.127 HD
HETATM   35  H   UNK N   1      -2.199  -5.490  -0.755  0.00  0.00     0.127 HD
HETATM   36  C   UNK N   1      -3.666  -0.264   1.490  0.00  0.00     0.020 A 
HETATM   37  C   UNK N   1      -3.762   0.942   0.818  0.00  0.00     0.027 A 
BRANCH  32  38
HETATM   38  N   UNK N   1      -3.401  -2.883   2.749  0.00  0.00    -0.288 NA
HETATM   39  H   UNK N   1      -2.922  -2.243   3.373  0.00  0.00     0.125 HD
HETATM   40  H   UNK N   1      -3.190  -3.852   2.973  0.00  0.00     0.125 HD
ENDBRANCH  32  38
ENDBRANCH   1  22
TORSDOF 7
