REMARK  5 active torsions:
REMARK  status: ('A' for Active; 'I' for Inactive)
REMARK    1  A    between atoms: O_4  and  C_18 
REMARK    2  A    between atoms: O_5  and  C_22 
REMARK    3  A    between atoms: O_6  and  C_25 
REMARK    4  A    between atoms: C_12  and  C_15 
REMARK    5  A    between atoms: C_17  and  C_22 
ROOT
HETATM    1  F   UNK N   1      -0.290   4.166  -1.774  0.00  0.00    -0.206 F 
HETATM    2  F   UNK N   1       0.436   4.521   0.249  0.00  0.00    -0.206 F 
HETATM    3  O   UNK N   1      -0.005  -0.590  -0.379  0.00  0.00    -0.340 OA
HETATM    4  C   UNK N   1       0.450   1.606   0.618  0.00  0.00     0.034 C 
HETATM    5  C   UNK N   1      -1.068   1.829   0.811  0.00  0.00     0.034 C 
HETATM    6  C   UNK N   1       0.798   2.385  -0.655  0.00  0.00     0.087 C 
HETATM    7  C   UNK N   1      -1.417   3.103   0.018  0.00  0.00     0.089 C 
HETATM    8  C   UNK N   1      -0.110   3.589  -0.570  0.00  0.00     0.244 C 
HETATM    9  C   UNK N   1       0.788   0.113   0.598  0.00  0.00     0.167 C 
HETATM   10  C   UNK N   1      -1.928   0.655   0.388  0.00  0.00    -0.017 A 
HETATM   11  C   UNK N   1      -1.358  -0.487  -0.190  0.00  0.00     0.085 A 
HETATM   12  C   UNK N   1      -3.324   0.696   0.585  0.00  0.00     0.047 A 
HETATM   13  C   UNK N   1      -2.169  -1.550  -0.633  0.00  0.00     0.002 A 
HETATM   14  C   UNK N   1      -4.119  -0.377   0.186  0.00  0.00     0.067 A 
HETATM   15  C   UNK N   1      -3.556  -1.477  -0.433  0.00  0.00     0.048 A 
ENDROOT
BRANCH   9  16
HETATM   16  C   UNK N   1       2.259  -0.185   0.323  0.00  0.00    -0.028 A 
HETATM   17  C   UNK N   1       3.194  -0.263   1.369  0.00  0.00     0.012 A 
HETATM   18  C   UNK N   1       4.512  -0.667   1.118  0.00  0.00     0.037 A 
HETATM   19  C   UNK N   1       4.898  -1.006  -0.174  0.00  0.00     0.065 A 
HETATM   20  C   UNK N   1       4.009  -0.882  -1.232  0.00  0.00     0.037 A 
HETATM   21  C   UNK N   1       2.704  -0.452  -0.985  0.00  0.00     0.012 A 
BRANCH  19  22
HETATM   22  O   UNK N   1       6.164  -1.476  -0.362  0.00  0.00    -0.361 OA
HETATM   23  H   UNK N   1       6.261  -1.735  -1.294  0.00  0.00     0.217 HD
ENDBRANCH  19  22
ENDBRANCH   9  16
BRANCH  13  24
HETATM   24  C   UNK N   1      -1.618  -2.820  -1.220  0.00  0.00     0.208 C 
BRANCH  24  25
HETATM   25  O   UNK N   1      -1.537  -3.775  -0.163  0.00  0.00    -0.391 OA
HETATM   26  C   UNK N   1      -0.929  -4.984  -0.585  0.00  0.00     0.201 C 
ENDBRANCH  24  25
ENDBRANCH  13  24
BRANCH  14  27
HETATM   27  O   UNK N   1      -5.466  -0.407   0.392  0.00  0.00    -0.361 OA
HETATM   28  H   UNK N   1      -5.737   0.383   0.882  0.00  0.00     0.217 HD
ENDBRANCH  14  27
TORSDOF 5
